.op
.tran {initialTime}s {finalTime}s
.print U(v1)
